DEFINED_PHASES=compile configure install prepare test
DEPEND=dev-python/setuptools[python_targets_python2_7(-)?,python_targets_python3_4(-)?,-python_single_target_python2_7(-),-python_single_target_python3_4(-)] test? ( dev-python/oct2py[python_targets_python2_7(-)?,python_targets_python3_4(-)?,-python_single_target_python2_7(-),-python_single_target_python3_4(-)] dev-python/pytest[python_targets_python2_7(-)?,python_targets_python3_4(-)?,-python_single_target_python2_7(-),-python_single_target_python3_4(-)] sci-libs/scipy[python_targets_python2_7(-)?,python_targets_python3_4(-)?,-python_single_target_python2_7(-),-python_single_target_python3_4(-)] ) python_targets_python2_7? ( >=dev-lang/python-2.7.5-r2:2.7 ) python_targets_python3_4? ( dev-lang/python:3.4 ) >=dev-lang/python-exec-2:=[python_targets_python2_7(-)?,python_targets_python3_4(-)?,-python_single_target_python2_7(-),-python_single_target_python3_4(-)]
DESCRIPTION=Python version of the SEAWATER 3.2 MATLAB toolkit for calculating the properties of sea water
EAPI=5
HOMEPAGE=https://pypi.python.org/pypi/seawater/
IUSE=test python_targets_python2_7 python_targets_python3_4
KEYWORDS=~amd64 ~x86
LICENSE=MIT
RDEPEND=dev-python/numpy[python_targets_python2_7(-)?,python_targets_python3_4(-)?,-python_single_target_python2_7(-),-python_single_target_python3_4(-)] python_targets_python2_7? ( >=dev-lang/python-2.7.5-r2:2.7 ) python_targets_python3_4? ( dev-lang/python:3.4 ) >=dev-lang/python-exec-2:=[python_targets_python2_7(-)?,python_targets_python3_4(-)?,-python_single_target_python2_7(-),-python_single_target_python3_4(-)]
REQUIRED_USE=|| ( python_targets_python2_7 python_targets_python3_4 )
RESTRICT=test
SLOT=0
SRC_URI=mirror://pypi/s/seawater/seawater-3.3.2.tar.gz
_eclasses_=distutils-r1	039ba10839816478cfb070fdeb053906	eutils	708f85bc1bf00876604e223fb56e062a	multibuild	742139c87a9fa3766f0c2b155e5522bf	multilib	165fc17c38d1b11dac2008280dab6e80	multiprocessing	284a473719153462f3e974d86c8cb81c	python-r1	e0edbf5130eaefe107b8c8872bd818bc	python-utils-r1	316c531873247e48befb99900e5aa2ed	toolchain-funcs	1b1da0c45c555989dc5d832b54880783	xdg-utils	178a84136f416b8ea1a857717eacd21c
_md5_=9cae93d70bc6838828769aef49de39bb
